<?xml version="1.0" encoding="UTF-8"?>
<ui version="4.0">
 <class>windows</class>
 <widget class="QDialog" name="windows">
  <property name="geometry">
   <rect>
    <x>0</x>
    <y>0</y>
    <width>472</width>
    <height>277</height>
   </rect>
  </property>
  <property name="windowTitle">
   <string>Windows installer</string>
  </property>
  <property name="windowIcon">
   <iconset>
    <normaloff>:/newPrefix/pics/icon.png</normaloff>:/newPrefix/pics/icon.png</iconset>
  </property>
  <widget class="QTextEdit" name="textEdit">
   <property name="geometry">
    <rect>
     <x>9</x>
     <y>9</y>
     <width>461</width>
     <height>231</height>
    </rect>
   </property>
   <property name="readOnly">
    <bool>true</bool>
   </property>
   <property name="html">
    <string>&lt;!DOCTYPE HTML PUBLIC &quot;-//W3C//DTD HTML 4.0//EN&quot; &quot;http://www.w3.org/TR/REC-html40/strict.dtd&quot;&gt;
&lt;html&gt;&lt;head&gt;&lt;meta name=&quot;qrichtext&quot; content=&quot;1&quot; /&gt;&lt;style type=&quot;text/css&quot;&gt;
p, li { white-space: pre-wrap; }
&lt;/style&gt;&lt;/head&gt;&lt;body style=&quot; font-family:'MS Shell Dlg 2'; font-size:8.25pt; font-weight:400; font-style:normal;&quot;&gt;
&lt;p align=&quot;center&quot; style=&quot; margin-top:0px; margin-bottom:0px; margin-left:0px; margin-right:0px; -qt-block-indent:0; text-indent:0px;&quot;&gt;&lt;span style=&quot; font-family:'Ubuntu'; font-size:12pt; font-weight:600; font-style:italic; text-decoration: underline;&quot;&gt;Install missing dependencies&lt;/span&gt;&lt;/p&gt;
&lt;p style=&quot;-qt-paragraph-type:empty; margin-top:0px; margin-bottom:0px; margin-left:0px; margin-right:0px; -qt-block-indent:0; text-indent:0px; font-family:'Ubuntu'; font-size:11pt; font-weight:600;&quot;&gt;&lt;br /&gt;&lt;/p&gt;
&lt;p style=&quot;-qt-paragraph-type:empty; margin-top:0px; margin-bottom:0px; margin-left:0px; margin-right:0px; -qt-block-indent:0; text-indent:0px; font-size:8pt;&quot;&gt;&lt;br /&gt;&lt;/p&gt;
&lt;p style=&quot; margin-top:0px; margin-bottom:0px; margin-left:0px; margin-right:0px; -qt-block-indent:0; text-indent:0px;&quot;&gt;&lt;span style=&quot; font-family:'Ubuntu'; font-size:11pt;&quot;&gt;In order to run QSWATMOD, it is necessary to upgrade the Python library with the following dependencies:&lt;/span&gt;&lt;/p&gt;
&lt;p style=&quot;-qt-paragraph-type:empty; margin-top:0px; margin-bottom:0px; margin-left:0px; margin-right:0px; -qt-block-indent:0; text-indent:0px; font-family:'Ubuntu'; font-size:11pt;&quot;&gt;&lt;br /&gt;&lt;/p&gt;
&lt;p align=&quot;center&quot; style=&quot; margin-top:0px; margin-bottom:0px; margin-left:0px; margin-right:0px; -qt-block-indent:0; text-indent:0px;&quot;&gt;&lt;span style=&quot; font-family:'Ubuntu'; font-size:11pt; font-weight:600; color:#ff0000;&quot;&gt;pip, FloPy, Pandas, pyshp, OpenCV &lt;/span&gt;&lt;span style=&quot; font-family:'Ubuntu'; font-size:11pt;&quot;&gt; &lt;/span&gt;&lt;/p&gt;
&lt;p style=&quot; margin-top:0px; margin-bottom:0px; margin-left:0px; margin-right:0px; -qt-block-indent:0; text-indent:0px;&quot;&gt;&lt;span style=&quot; font-family:'Ubuntu'; font-size:11pt;&quot;&gt;&lt;br /&gt;Please confirm with 'Yes' to the next pop-up&lt;/span&gt;&lt;/p&gt;
&lt;p style=&quot;-qt-paragraph-type:empty; margin-top:0px; margin-bottom:0px; margin-left:0px; margin-right:0px; -qt-block-indent:0; text-indent:0px; font-family:'Ubuntu'; font-size:11pt;&quot;&gt;&lt;br /&gt;&lt;/p&gt;
&lt;p style=&quot;-qt-paragraph-type:empty; margin-top:0px; margin-bottom:0px; margin-left:0px; margin-right:0px; -qt-block-indent:0; text-indent:0px; font-family:'Ubuntu'; font-size:11pt;&quot;&gt;&lt;br /&gt;&lt;/p&gt;
&lt;p align=&quot;right&quot; style=&quot; margin-top:0px; margin-bottom:0px; margin-left:0px; margin-right:0px; -qt-block-indent:0; text-indent:0px;&quot;&gt;&lt;span style=&quot; font-family:'Ubuntu,serif'; font-size:8pt; font-style:italic;&quot;&gt;Acknowledgements to freewat for the installation functionality&lt;/span&gt;&lt;span style=&quot; font-size:8pt; font-style:italic;&quot;&gt; &lt;/span&gt;&lt;/p&gt;&lt;/body&gt;&lt;/html&gt;</string>
   </property>
  </widget>
  <widget class="QDialogButtonBox" name="buttonBox">
   <property name="geometry">
    <rect>
     <x>390</x>
     <y>250</y>
     <width>77</width>
     <height>25</height>
    </rect>
   </property>
   <property name="orientation">
    <enum>Qt::Horizontal</enum>
   </property>
   <property name="standardButtons">
    <set>QDialogButtonBox::Ok</set>
   </property>
  </widget>
  <widget class="QWidget" name="layoutWidget">
   <property name="geometry">
    <rect>
     <x>80</x>
     <y>430</y>
     <width>303</width>
     <height>120</height>
    </rect>
   </property>
   <layout class="QVBoxLayout" name="verticalLayout_2">
    <property name="spacing">
     <number>3</number>
    </property>
    <property name="topMargin">
     <number>0</number>
    </property>
    <item>
     <widget class="QFrame" name="proxyFrame">
      <property name="enabled">
       <bool>false</bool>
      </property>
      <property name="frameShape">
       <enum>QFrame::StyledPanel</enum>
      </property>
      <property name="frameShadow">
       <enum>QFrame::Raised</enum>
      </property>
      <layout class="QVBoxLayout" name="verticalLayout_3">
       <property name="spacing">
        <number>3</number>
       </property>
       <property name="margin">
        <number>3</number>
       </property>
       <item>
        <widget class="QCheckBox" name="checkProxy">
         <property name="text">
          <string>Use proxy</string>
         </property>
        </widget>
       </item>
       <item>
        <layout class="QHBoxLayout" name="horizontalLayout_2" stretch="1,5,1,2">
         <property name="spacing">
          <number>3</number>
         </property>
         <property name="topMargin">
          <number>0</number>
         </property>
         <item>
          <widget class="QLabel" name="label">
           <property name="text">
            <string>Server</string>
           </property>
          </widget>
         </item>
         <item>
          <widget class="QLineEdit" name="proxyServer"/>
         </item>
         <item>
          <widget class="QLabel" name="label_2">
           <property name="text">
            <string>port</string>
           </property>
          </widget>
         </item>
         <item>
          <widget class="QSpinBox" name="proxyPort">
           <property name="maximum">
            <number>1000000</number>
           </property>
          </widget>
         </item>
        </layout>
       </item>
       <item>
        <layout class="QHBoxLayout" name="horizontalLayout" stretch="1,4">
         <property name="spacing">
          <number>3</number>
         </property>
         <property name="topMargin">
          <number>0</number>
         </property>
         <item>
          <widget class="QCheckBox" name="checkUser">
           <property name="text">
            <string>User autentication</string>
           </property>
          </widget>
         </item>
         <item>
          <widget class="QFrame" name="userFrame">
           <property name="enabled">
            <bool>false</bool>
           </property>
           <property name="frameShape">
            <enum>QFrame::StyledPanel</enum>
           </property>
           <property name="frameShadow">
            <enum>QFrame::Raised</enum>
           </property>
           <layout class="QVBoxLayout" name="verticalLayout_4">
            <property name="margin">
             <number>3</number>
            </property>
            <item>
             <layout class="QHBoxLayout" name="horizontalLayout_4" stretch="1,3">
              <property name="topMargin">
               <number>0</number>
              </property>
              <item>
               <widget class="QLabel" name="label_3">
                <property name="text">
                 <string>User</string>
                </property>
               </widget>
              </item>
              <item>
               <widget class="QLineEdit" name="proxyUser"/>
              </item>
             </layout>
            </item>
            <item>
             <layout class="QHBoxLayout" name="horizontalLayout_3" stretch="1,3">
              <property name="topMargin">
               <number>0</number>
              </property>
              <item>
               <widget class="QLabel" name="label_4">
                <property name="text">
                 <string>Password</string>
                </property>
               </widget>
              </item>
              <item>
               <widget class="QLineEdit" name="proxyPass">
                <property name="echoMode">
                 <enum>QLineEdit::Password</enum>
                </property>
               </widget>
              </item>
             </layout>
            </item>
           </layout>
          </widget>
         </item>
        </layout>
       </item>
      </layout>
     </widget>
    </item>
   </layout>
  </widget>
  <zorder>textEdit</zorder>
  <zorder>layoutWidget</zorder>
  <zorder>buttonBox</zorder>
 </widget>
 <resources/>
 <connections>
  <connection>
   <sender>buttonBox</sender>
   <signal>rejected()</signal>
   <receiver>windows</receiver>
   <slot>reject()</slot>
   <hints>
    <hint type="sourcelabel">
     <x>316</x>
     <y>260</y>
    </hint>
    <hint type="destinationlabel">
     <x>286</x>
     <y>274</y>
    </hint>
   </hints>
  </connection>
  <connection>
   <sender>buttonBox</sender>
   <signal>accepted()</signal>
   <receiver>windows</receiver>
   <slot>accept()</slot>
   <hints>
    <hint type="sourcelabel">
     <x>248</x>
     <y>254</y>
    </hint>
    <hint type="destinationlabel">
     <x>157</x>
     <y>274</y>
    </hint>
   </hints>
  </connection>
 </connections>
</ui>
